<additional>
  <tlLogic id="t" programID="my_program" offset="0" type="static">
    <phase duration="20" state="rGrrrrrrrrrr"/>
    <phase duration="2" state="ryrrrrrrrrrr"/>
    <phase duration="2" state="rrrrrrrrrryr"/>
    <phase duration="20" state="rrrrrrrrrrGr"/>
    <phase duration="2" state="rrrrrrrrrryr"/>
    <phase duration="2" state="ryrrrrrrrrrr"/>
  </tlLogic>
</additional>
