<additional>
  <tlLogic id="t" programID="my_program" offset="0" type="static">
    <phase duration="20" state="Grrrrrrrrrrr"/>
    <phase duration="2" state="yrrrrrrrrrrr"/>
    <phase duration="2" state="rrrrrrrryrrr"/>
    <phase duration="20" state="rrrrrrrrGrrr"/>
    <phase duration="2" state="rrrrrrrryrrr"/>
    <phase duration="2" state="yrrrrrrrrrrr"/>
  </tlLogic>
</additional>
