<?xml version="1.0" encoding="UTF-8"?>

<!-- generated on 2024-06-02 17:17:54 by Eclipse SUMO netconvert Version 1.19.0
<configuration xmlns:xsi="http://www.w3.org/2001/XMLSchema-instance" xsi:noNamespaceSchemaLocation="http://sumo.dlr.de/xsd/netconvertConfiguration.xsd">

    <input>
        <node-files value="single-intersection.nod.xml"/>
        <edge-files value="single-intersection.edg.xml"/>
        <connection-files value="single-intersection.con.xml"/>
    </input>

    <output>
        <output-file value="single-intersection-2.net.xml"/>
    </output>

    <processing>
        <lefthand value="true"/>
    </processing>

    <junctions>
        <no-turnarounds value="true"/>
    </junctions>

</configuration>
-->

<net version="1.16" junctionCornerDetail="5" lefthand="true" limitTurnSpeed="5.50" xmlns:xsi="http://www.w3.org/2001/XMLSchema-instance" xsi:noNamespaceSchemaLocation="http://sumo.dlr.de/xsd/net_file.xsd">

    <location netOffset="150.00,150.00" convBoundary="0.00,-0.00,300.00,300.00" origBoundary="-150.00,-150.00,150.00,150.00" projParameter="!"/>

    <edge id=":t_0" function="internal">
        <lane id=":t_0_0" index="0" speed="6.51" length="9.03" shape="142.00,136.40 141.65,138.85 140.60,140.60 138.85,141.65 136.40,142.00"/>
    </edge>
    <edge id=":t_1" function="internal">
        <lane id=":t_1_0" index="0" speed="13.89" length="27.20" shape="145.20,136.40 145.20,163.60"/>
    </edge>
    <edge id=":t_2" function="internal">
        <lane id=":t_2_0" index="0" speed="10.36" length="12.07" shape="148.40,136.40 149.35,143.05 152.10,147.64"/>
    </edge>
    <edge id=":t_12" function="internal">
        <lane id=":t_12_0" index="0" speed="10.36" length="12.44" shape="152.10,147.64 152.20,147.80 156.95,150.65 163.60,151.60"/>
    </edge>
    <edge id=":t_3" function="internal">
        <lane id=":t_3_0" index="0" speed="6.51" length="9.03" shape="163.60,142.00 161.15,141.65 159.40,140.60 158.35,138.85 158.00,136.40"/>
    </edge>
    <edge id=":t_4" function="internal">
        <lane id=":t_4_0" index="0" speed="13.89" length="27.20" shape="163.60,145.20 136.40,145.20"/>
    </edge>
    <edge id=":t_5" function="internal">
        <lane id=":t_5_0" index="0" speed="10.36" length="12.07" shape="163.60,148.40 156.95,149.35 152.36,152.10"/>
    </edge>
    <edge id=":t_13" function="internal">
        <lane id=":t_13_0" index="0" speed="10.36" length="12.44" shape="152.36,152.10 152.20,152.20 149.35,156.95 148.40,163.60"/>
    </edge>
    <edge id=":t_6" function="internal">
        <lane id=":t_6_0" index="0" speed="6.51" length="9.03" shape="158.00,163.60 158.35,161.15 159.40,159.40 161.15,158.35 163.60,158.00"/>
    </edge>
    <edge id=":t_7" function="internal">
        <lane id=":t_7_0" index="0" speed="13.89" length="27.20" shape="154.80,163.60 154.80,136.40"/>
    </edge>
    <edge id=":t_8" function="internal">
        <lane id=":t_8_0" index="0" speed="10.36" length="12.07" shape="151.60,163.60 150.65,156.95 147.90,152.36"/>
    </edge>
    <edge id=":t_14" function="internal">
        <lane id=":t_14_0" index="0" speed="10.36" length="12.44" shape="147.90,152.36 147.80,152.20 143.05,149.35 136.40,148.40"/>
    </edge>
    <edge id=":t_9" function="internal">
        <lane id=":t_9_0" index="0" speed="6.51" length="9.03" shape="136.40,158.00 138.85,158.35 140.60,159.40 141.65,161.15 142.00,163.60"/>
    </edge>
    <edge id=":t_10" function="internal">
        <lane id=":t_10_0" index="0" speed="13.89" length="27.20" shape="136.40,154.80 163.60,154.80"/>
    </edge>
    <edge id=":t_11" function="internal">
        <lane id=":t_11_0" index="0" speed="10.36" length="12.07" shape="136.40,151.60 143.05,150.65 147.64,147.90"/>
    </edge>
    <edge id=":t_15" function="internal">
        <lane id=":t_15_0" index="0" speed="10.36" length="12.44" shape="147.64,147.90 147.80,147.80 150.65,143.05 151.60,136.40"/>
    </edge>

    <edge id="e_t" from="e" to="t" priority="-1">
        <lane id="e_t_0" index="0" speed="13.89" length="136.40" shape="300.00,142.00 163.60,142.00"/>
        <lane id="e_t_1" index="1" speed="13.89" length="136.40" shape="300.00,145.20 163.60,145.20"/>
        <lane id="e_t_2" index="2" speed="13.89" length="136.40" shape="300.00,148.40 163.60,148.40"/>
    </edge>
    <edge id="n_t" from="n" to="t" priority="-1">
        <lane id="n_t_0" index="0" speed="13.89" length="136.40" shape="158.00,300.00 158.00,163.60"/>
        <lane id="n_t_1" index="1" speed="13.89" length="136.40" shape="154.80,300.00 154.80,163.60"/>
        <lane id="n_t_2" index="2" speed="13.89" length="136.40" shape="151.60,300.00 151.60,163.60"/>
    </edge>
    <edge id="s_t" from="s" to="t" priority="-1">
        <lane id="s_t_0" index="0" speed="13.89" length="136.40" shape="142.00,-0.00 142.00,136.40"/>
        <lane id="s_t_1" index="1" speed="13.89" length="136.40" shape="145.20,-0.00 145.20,136.40"/>
        <lane id="s_t_2" index="2" speed="13.89" length="136.40" shape="148.40,-0.00 148.40,136.40"/>
    </edge>
    <edge id="t_e" from="t" to="e" priority="-1">
        <lane id="t_e_0" index="0" speed="13.89" length="136.40" shape="163.60,158.00 300.00,158.00"/>
        <lane id="t_e_1" index="1" speed="13.89" length="136.40" shape="163.60,154.80 300.00,154.80"/>
        <lane id="t_e_2" index="2" speed="13.89" length="136.40" shape="163.60,151.60 300.00,151.60"/>
    </edge>
    <edge id="t_n" from="t" to="n" priority="-1">
        <lane id="t_n_0" index="0" speed="13.89" length="136.40" shape="142.00,163.60 142.00,300.00"/>
        <lane id="t_n_1" index="1" speed="13.89" length="136.40" shape="145.20,163.60 145.20,300.00"/>
        <lane id="t_n_2" index="2" speed="13.89" length="136.40" shape="148.40,163.60 148.40,300.00"/>
    </edge>
    <edge id="t_s" from="t" to="s" priority="-1">
        <lane id="t_s_0" index="0" speed="13.89" length="136.40" shape="158.00,136.40 158.00,-0.00"/>
        <lane id="t_s_1" index="1" speed="13.89" length="136.40" shape="154.80,136.40 154.80,-0.00"/>
        <lane id="t_s_2" index="2" speed="13.89" length="136.40" shape="151.60,136.40 151.60,-0.00"/>
    </edge>
    <edge id="t_w" from="t" to="w" priority="-1">
        <lane id="t_w_0" index="0" speed="13.89" length="136.40" shape="136.40,142.00 0.00,142.00"/>
        <lane id="t_w_1" index="1" speed="13.89" length="136.40" shape="136.40,145.20 0.00,145.20"/>
        <lane id="t_w_2" index="2" speed="13.89" length="136.40" shape="136.40,148.40 0.00,148.40"/>
    </edge>
    <edge id="w_t" from="w" to="t" priority="-1">
        <lane id="w_t_0" index="0" speed="13.89" length="136.40" shape="0.00,158.00 136.40,158.00"/>
        <lane id="w_t_1" index="1" speed="13.89" length="136.40" shape="0.00,154.80 136.40,154.80"/>
        <lane id="w_t_2" index="2" speed="13.89" length="136.40" shape="0.00,151.60 136.40,151.60"/>
    </edge>

    <tlLogic id="t" type="static" programID="0" offset="0">
        <phase duration="33" state="GGGGrrrrrrrr"/>
        <phase duration='3' state='yyyyyyyyyyyy' />
        <phase duration="33" state="rrrGGGGrrrrr"/>
        <phase duration='3' state='yyyyyyyyyyyy' />
        <phase duration="33" state="rrrrrrGGGGrr"/>
        <phase duration='3' state='yyyyyyyyyyyy' />
        <phase duration="33" state="GrrrrrrrrGGG"/>
        <phase duration='3' state='yyyyyyyyyyyy' />
        <phase duration="33" state="GGrGrrGrrrrr"/>
        <phase duration='3' state='yyyyyyyyyyyy' />
        <phase duration="33" state="rrrGGrGrrGrr"/>
        <phase duration='3' state='yyyyyyyyyyyy' />
        <phase duration="33" state="GrrrrrGGrGrr"/>
        <phase duration='3' state='yyyyyyyyyyyy' />
        <phase duration="33" state="GrrGrrrrrGGr"/>
        <phase duration='3' state='yyyyyyyyyyyy' />
        <phase duration="33" state="GrrGrrGrrGrr"/>
        <phase duration='3' state='yyyyyyyyyyyy' />
        <phase duration="33" state="GrrGrGGrrrrr"/>
        <phase duration='3' state='yyyyyyyyyyyy' />
        <phase duration="33" state="rrrGrrGrGGrr"/>
        <phase duration='3' state='yyyyyyyyyyyy' />
        <phase duration="33" state="GrrrrrGrrGrG"/>
        <phase duration='3' state='yyyyyyyyyyyy' />
        <phase duration="33" state="GrGGrrrrrGrr"/>
        <phase duration='3' state='yyyyyyyyyyyy' />
        <phase duration="33" state="GGrrrrGGrrrr"/>
        <phase duration='3' state='yyyyyyyyyyyy' />
        <phase duration="33" state="rrrGGrrrrGGr"/>
        <phase duration='3' state='yyyyyyyyyyyy' />
        <phase duration="33" state="GrrrrGGrrrrG"/>
        <phase duration='3' state='yyyyyyyyyyyy' />
        <phase duration="33" state="rrGGrrrrGGrr"/>
        <phase duration='3' state='yyyyyyyyyyyy' />
    </tlLogic>

    <junction id="e" type="dead_end" x="300.00" y="150.00" incLanes="t_e_0 t_e_1 t_e_2" intLanes="" shape="300.00,150.00 300.00,159.60 300.00,150.00"/>
    <junction id="n" type="dead_end" x="150.00" y="300.00" incLanes="t_n_0 t_n_1 t_n_2" intLanes="" shape="150.00,300.00 140.40,300.00 150.00,300.00"/>
    <junction id="s" type="dead_end" x="150.00" y="-0.00" incLanes="t_s_0 t_s_1 t_s_2" intLanes="" shape="150.00,-0.00 159.60,-0.00 150.00,-0.00"/>
    <junction id="t" type="traffic_light" x="150.00" y="150.00" incLanes="s_t_0 s_t_1 s_t_2 e_t_0 e_t_1 e_t_2 n_t_0 n_t_1 n_t_2 w_t_0 w_t_1 w_t_2" intLanes=":t_0_0 :t_1_0 :t_12_0 :t_3_0 :t_4_0 :t_13_0 :t_6_0 :t_7_0 :t_14_0 :t_9_0 :t_10_0 :t_15_0" shape="140.40,136.40 159.60,136.40 160.04,138.62 160.60,139.40 161.38,139.96 162.38,140.29 163.60,140.40 163.60,159.60 161.38,160.04 160.60,160.60 160.04,161.38 159.71,162.38 159.60,163.60 140.40,163.60 139.96,161.38 139.40,160.60 138.62,160.04 137.62,159.71 136.40,159.60 136.40,140.40 138.62,139.96 139.40,139.40 139.96,138.62 140.29,137.62">
        <request index="0"  response="000000000000" foes="000000000000" cont="0"/>
        <request index="1"  response="100000000000" foes="110100010000" cont="0"/>
        <request index="2"  response="100010100000" foes="100010110000" cont="1"/>
        <request index="3"  response="000000000000" foes="000000000000" cont="0"/>
        <request index="4"  response="000010000110" foes="100010000110" cont="0"/>
        <request index="5"  response="010110000100" foes="010110000100" cont="1"/>
        <request index="6"  response="000000000000" foes="000000000000" cont="0"/>
        <request index="7"  response="000000100000" foes="010000110100" cont="0"/>
        <request index="8"  response="100000100010" foes="110000100010" cont="1"/>
        <request index="9"  response="000000000000" foes="000000000000" cont="0"/>
        <request index="10" response="000110000010" foes="000110100010" cont="0"/>
        <request index="11" response="000100010110" foes="000100010110" cont="1"/>
    </junction>
    <junction id="w" type="dead_end" x="0.00" y="150.00" incLanes="t_w_0 t_w_1 t_w_2" intLanes="" shape="0.00,150.00 0.00,140.40 0.00,150.00"/>

    <junction id=":t_12_0" type="internal" x="152.10" y="147.64" incLanes=":t_2_0 n_t_1" intLanes=":t_4_0 :t_5_0 :t_7_0 :t_11_0"/>
    <junction id=":t_13_0" type="internal" x="152.36" y="152.10" incLanes=":t_5_0 w_t_1" intLanes=":t_2_0 :t_7_0 :t_8_0 :t_10_0"/>
    <junction id=":t_14_0" type="internal" x="147.90" y="152.36" incLanes=":t_8_0 s_t_1" intLanes=":t_1_0 :t_5_0 :t_10_0 :t_11_0"/>
    <junction id=":t_15_0" type="internal" x="147.64" y="147.90" incLanes=":t_11_0 e_t_1" intLanes=":t_1_0 :t_2_0 :t_4_0 :t_8_0"/>

    <connection from="e_t" to="t_s" fromLane="0" toLane="0" via=":t_3_0" tl="t" linkIndex="3" dir="l" state="O"/>
    <connection from="e_t" to="t_w" fromLane="1" toLane="1" via=":t_4_0" tl="t" linkIndex="4" dir="s" state="o"/>
    <connection from="e_t" to="t_n" fromLane="2" toLane="2" via=":t_5_0" tl="t" linkIndex="5" dir="r" state="o"/>
    <connection from="n_t" to="t_e" fromLane="0" toLane="0" via=":t_6_0" tl="t" linkIndex="6" dir="l" state="O"/>
    <connection from="n_t" to="t_s" fromLane="1" toLane="1" via=":t_7_0" tl="t" linkIndex="7" dir="s" state="O"/>
    <connection from="n_t" to="t_w" fromLane="2" toLane="2" via=":t_8_0" tl="t" linkIndex="8" dir="r" state="o"/>
    <connection from="s_t" to="t_w" fromLane="0" toLane="0" via=":t_0_0" tl="t" linkIndex="0" dir="l" state="O"/>
    <connection from="s_t" to="t_n" fromLane="1" toLane="1" via=":t_1_0" tl="t" linkIndex="1" dir="s" state="O"/>
    <connection from="s_t" to="t_e" fromLane="2" toLane="2" via=":t_2_0" tl="t" linkIndex="2" dir="r" state="o"/>
    <connection from="w_t" to="t_n" fromLane="0" toLane="0" via=":t_9_0" tl="t" linkIndex="9" dir="l" state="O"/>
    <connection from="w_t" to="t_e" fromLane="1" toLane="1" via=":t_10_0" tl="t" linkIndex="10" dir="s" state="o"/>
    <connection from="w_t" to="t_s" fromLane="2" toLane="2" via=":t_11_0" tl="t" linkIndex="11" dir="r" state="o"/>

    <connection from=":t_0" to="t_w" fromLane="0" toLane="0" dir="l" state="M"/>
    <connection from=":t_1" to="t_n" fromLane="0" toLane="1" dir="s" state="M"/>
    <connection from=":t_2" to="t_e" fromLane="0" toLane="2" via=":t_12_0" dir="r" state="m"/>
    <connection from=":t_12" to="t_e" fromLane="0" toLane="2" dir="r" state="M"/>
    <connection from=":t_3" to="t_s" fromLane="0" toLane="0" dir="l" state="M"/>
    <connection from=":t_4" to="t_w" fromLane="0" toLane="1" dir="s" state="M"/>
    <connection from=":t_5" to="t_n" fromLane="0" toLane="2" via=":t_13_0" dir="r" state="m"/>
    <connection from=":t_13" to="t_n" fromLane="0" toLane="2" dir="r" state="M"/>
    <connection from=":t_6" to="t_e" fromLane="0" toLane="0" dir="l" state="M"/>
    <connection from=":t_7" to="t_s" fromLane="0" toLane="1" dir="s" state="M"/>
    <connection from=":t_8" to="t_w" fromLane="0" toLane="2" via=":t_14_0" dir="r" state="m"/>
    <connection from=":t_14" to="t_w" fromLane="0" toLane="2" dir="r" state="M"/>
    <connection from=":t_9" to="t_n" fromLane="0" toLane="0" dir="l" state="M"/>
    <connection from=":t_10" to="t_e" fromLane="0" toLane="1" dir="s" state="M"/>
    <connection from=":t_11" to="t_s" fromLane="0" toLane="2" via=":t_15_0" dir="r" state="m"/>
    <connection from=":t_15" to="t_s" fromLane="0" toLane="2" dir="r" state="M"/>

</net>
