<?xml version="1.0" encoding="UTF-8"?>

<!-- generated on 2024-06-02 12:50:05 by Eclipse SUMO netconvert Version 1.19.0
<configuration xmlns:xsi="http://www.w3.org/2001/XMLSchema-instance" xsi:noNamespaceSchemaLocation="http://sumo.dlr.de/xsd/netconvertConfiguration.xsd">

    <input>
        <node-files value="single-intersection.nod.xml"/>
        <edge-files value="single-intersection.edg.xml"/>
    </input>

    <output>
        <output-file value="single-intersection-2.net.xml"/>
    </output>

    <junctions>
        <no-turnarounds value="true"/>
    </junctions>

</configuration>
-->

<net version="1.16" junctionCornerDetail="5" limitTurnSpeed="5.50" xmlns:xsi="http://www.w3.org/2001/XMLSchema-instance" xsi:noNamespaceSchemaLocation="http://sumo.dlr.de/xsd/net_file.xsd">

    <location netOffset="150.00,150.00" convBoundary="0.00,0.00,300.00,300.00" origBoundary="-150.00,-150.00,150.00,150.00" projParameter="!"/>

    <edge id=":t_0" function="internal">
        <lane id=":t_0_0" index="0" speed="6.51" length="9.03" shape="142.00,163.60 141.65,161.15 140.60,159.40 138.85,158.35 136.40,158.00"/>
    </edge>
    <edge id=":t_1" function="internal">
        <lane id=":t_1_0" index="0" speed="13.89" length="27.20" shape="142.00,163.60 142.00,136.40"/>
        <lane id=":t_1_1" index="1" speed="13.89" length="27.20" shape="145.20,163.60 145.20,136.40"/>
        <lane id=":t_1_2" index="2" speed="13.89" length="27.20" shape="148.40,163.60 148.40,136.40"/>
    </edge>
    <edge id=":t_4" function="internal">
        <lane id=":t_4_0" index="0" speed="10.36" length="5.01" shape="148.40,163.60 149.11,158.64"/>
    </edge>
    <edge id=":t_20" function="internal">
        <lane id=":t_20_0" index="0" speed="10.36" length="19.50" shape="149.11,158.64 149.35,156.95 152.20,152.20 156.95,149.35 163.60,148.40"/>
    </edge>
    <edge id=":t_5" function="internal">
        <lane id=":t_5_0" index="0" speed="6.51" length="9.03" shape="163.60,158.00 161.15,158.35 159.40,159.40 158.35,161.15 158.00,163.60"/>
    </edge>
    <edge id=":t_6" function="internal">
        <lane id=":t_6_0" index="0" speed="13.89" length="27.20" shape="163.60,158.00 136.40,158.00"/>
        <lane id=":t_6_1" index="1" speed="13.89" length="27.20" shape="163.60,154.80 136.40,154.80"/>
        <lane id=":t_6_2" index="2" speed="13.89" length="27.20" shape="163.60,151.60 136.40,151.60"/>
    </edge>
    <edge id=":t_9" function="internal">
        <lane id=":t_9_0" index="0" speed="10.36" length="24.51" shape="163.60,151.60 156.95,150.65 152.20,147.80 149.35,143.05 148.40,136.40"/>
    </edge>
    <edge id=":t_10" function="internal">
        <lane id=":t_10_0" index="0" speed="6.51" length="9.03" shape="158.00,136.40 158.35,138.85 159.40,140.60 161.15,141.65 163.60,142.00"/>
    </edge>
    <edge id=":t_11" function="internal">
        <lane id=":t_11_0" index="0" speed="13.89" length="27.20" shape="158.00,136.40 158.00,163.60"/>
        <lane id=":t_11_1" index="1" speed="13.89" length="27.20" shape="154.80,136.40 154.80,163.60"/>
        <lane id=":t_11_2" index="2" speed="13.89" length="27.20" shape="151.60,136.40 151.60,163.60"/>
    </edge>
    <edge id=":t_14" function="internal">
        <lane id=":t_14_0" index="0" speed="10.36" length="5.01" shape="151.60,136.40 150.89,141.36"/>
    </edge>
    <edge id=":t_21" function="internal">
        <lane id=":t_21_0" index="0" speed="10.36" length="19.50" shape="150.89,141.36 150.65,143.05 147.80,147.80 143.05,150.65 136.40,151.60"/>
    </edge>
    <edge id=":t_15" function="internal">
        <lane id=":t_15_0" index="0" speed="6.51" length="9.03" shape="136.40,142.00 138.85,141.65 140.60,140.60 141.65,138.85 142.00,136.40"/>
    </edge>
    <edge id=":t_16" function="internal">
        <lane id=":t_16_0" index="0" speed="13.89" length="27.20" shape="136.40,142.00 163.60,142.00"/>
        <lane id=":t_16_1" index="1" speed="13.89" length="27.20" shape="136.40,145.20 163.60,145.20"/>
        <lane id=":t_16_2" index="2" speed="13.89" length="27.20" shape="136.40,148.40 163.60,148.40"/>
    </edge>
    <edge id=":t_19" function="internal">
        <lane id=":t_19_0" index="0" speed="10.36" length="24.51" shape="136.40,148.40 143.05,149.35 147.80,152.20 150.65,156.95 151.60,163.60"/>
    </edge>

    <edge id="e_t" from="e" to="t" priority="-1">
        <lane id="e_t_0" index="0" speed="13.89" length="136.40" shape="300.00,158.00 163.60,158.00"/>
        <lane id="e_t_1" index="1" speed="13.89" length="136.40" shape="300.00,154.80 163.60,154.80"/>
        <lane id="e_t_2" index="2" speed="13.89" length="136.40" shape="300.00,151.60 163.60,151.60"/>
    </edge>
    <edge id="n_t" from="n" to="t" priority="-1">
        <lane id="n_t_0" index="0" speed="13.89" length="136.40" shape="142.00,300.00 142.00,163.60"/>
        <lane id="n_t_1" index="1" speed="13.89" length="136.40" shape="145.20,300.00 145.20,163.60"/>
        <lane id="n_t_2" index="2" speed="13.89" length="136.40" shape="148.40,300.00 148.40,163.60"/>
    </edge>
    <edge id="s_t" from="s" to="t" priority="-1">
        <lane id="s_t_0" index="0" speed="13.89" length="136.40" shape="158.00,0.00 158.00,136.40"/>
        <lane id="s_t_1" index="1" speed="13.89" length="136.40" shape="154.80,0.00 154.80,136.40"/>
        <lane id="s_t_2" index="2" speed="13.89" length="136.40" shape="151.60,0.00 151.60,136.40"/>
    </edge>
    <edge id="t_e" from="t" to="e" priority="-1">
        <lane id="t_e_0" index="0" speed="13.89" length="136.40" shape="163.60,142.00 300.00,142.00"/>
        <lane id="t_e_1" index="1" speed="13.89" length="136.40" shape="163.60,145.20 300.00,145.20"/>
        <lane id="t_e_2" index="2" speed="13.89" length="136.40" shape="163.60,148.40 300.00,148.40"/>
    </edge>
    <edge id="t_n" from="t" to="n" priority="-1">
        <lane id="t_n_0" index="0" speed="13.89" length="136.40" shape="158.00,163.60 158.00,300.00"/>
        <lane id="t_n_1" index="1" speed="13.89" length="136.40" shape="154.80,163.60 154.80,300.00"/>
        <lane id="t_n_2" index="2" speed="13.89" length="136.40" shape="151.60,163.60 151.60,300.00"/>
    </edge>
    <edge id="t_s" from="t" to="s" priority="-1">
        <lane id="t_s_0" index="0" speed="13.89" length="136.40" shape="142.00,136.40 142.00,0.00"/>
        <lane id="t_s_1" index="1" speed="13.89" length="136.40" shape="145.20,136.40 145.20,0.00"/>
        <lane id="t_s_2" index="2" speed="13.89" length="136.40" shape="148.40,136.40 148.40,0.00"/>
    </edge>
    <edge id="t_w" from="t" to="w" priority="-1">
        <lane id="t_w_0" index="0" speed="13.89" length="136.40" shape="136.40,158.00 0.00,158.00"/>
        <lane id="t_w_1" index="1" speed="13.89" length="136.40" shape="136.40,154.80 0.00,154.80"/>
        <lane id="t_w_2" index="2" speed="13.89" length="136.40" shape="136.40,151.60 0.00,151.60"/>
    </edge>
    <edge id="w_t" from="w" to="t" priority="-1">
        <lane id="w_t_0" index="0" speed="13.89" length="136.40" shape="0.00,142.00 136.40,142.00"/>
        <lane id="w_t_1" index="1" speed="13.89" length="136.40" shape="0.00,145.20 136.40,145.20"/>
        <lane id="w_t_2" index="2" speed="13.89" length="136.40" shape="0.00,148.40 136.40,148.40"/>
    </edge>

    <junction id="e" type="dead_end" x="300.00" y="150.00" incLanes="t_e_0 t_e_1 t_e_2" intLanes="" shape="300.00,150.00 300.00,140.40 300.00,150.00"/>
    <junction id="n" type="dead_end" x="150.00" y="300.00" incLanes="t_n_0 t_n_1 t_n_2" intLanes="" shape="150.00,300.00 159.60,300.00 150.00,300.00"/>
    <junction id="s" type="dead_end" x="150.00" y="0.00" incLanes="t_s_0 t_s_1 t_s_2" intLanes="" shape="150.00,0.00 140.40,0.00 150.00,0.00"/>
    <junction id="t" type="priority" x="150.00" y="150.00" incLanes="n_t_0 n_t_1 n_t_2 e_t_0 e_t_1 e_t_2 s_t_0 s_t_1 s_t_2 w_t_0 w_t_1 w_t_2" intLanes=":t_0_0 :t_1_0 :t_1_1 :t_1_2 :t_20_0 :t_5_0 :t_6_0 :t_6_1 :t_6_2 :t_9_0 :t_10_0 :t_11_0 :t_11_1 :t_11_2 :t_21_0 :t_15_0 :t_16_0 :t_16_1 :t_16_2 :t_19_0" shape="140.40,163.60 159.60,163.60 160.04,161.38 160.60,160.60 161.38,160.04 162.38,159.71 163.60,159.60 163.60,140.40 161.38,139.96 160.60,139.40 160.04,138.62 159.71,137.62 159.60,136.40 140.40,136.40 139.96,138.62 139.40,139.40 138.62,139.96 137.62,140.29 136.40,140.40 136.40,159.60 138.62,160.04 139.40,160.60 139.96,161.38 140.29,162.38">
        <request index="0"  response="00000000000000000000" foes="00000000000111000000" cont="0"/>
        <request index="1"  response="00000000000000000000" foes="11111100001111000000" cont="0"/>
        <request index="2"  response="00000000000000000000" foes="11111100001111000000" cont="0"/>
        <request index="3"  response="00000000000000000000" foes="11111100001111000000" cont="0"/>
        <request index="4"  response="00000011100000000000" foes="11110011101111000000" cont="1"/>
        <request index="5"  response="00000011100000000000" foes="00000011100000000000" cont="0"/>
        <request index="6"  response="00000111100000011111" foes="10000111100000011111" cont="0"/>
        <request index="7"  response="00000111100000011111" foes="10000111100000011111" cont="0"/>
        <request index="8"  response="00000111100000011111" foes="10000111100000011111" cont="0"/>
        <request index="9"  response="01110111100000011110" foes="01110111100000011110" cont="0"/>
        <request index="10" response="00000000000000000000" foes="01110000000000000000" cont="0"/>
        <request index="11" response="00000000000000000000" foes="11110000001111110000" cont="0"/>
        <request index="12" response="00000000000000000000" foes="11110000001111110000" cont="0"/>
        <request index="13" response="00000000000000000000" foes="11110000001111110000" cont="0"/>
        <request index="14" response="00000000000000001110" foes="11110000001111001110" cont="1"/>
        <request index="15" response="00000000000000001110" foes="00000000000000001110" cont="0"/>
        <request index="16" response="00000111110000011110" foes="00000111111000011110" cont="0"/>
        <request index="17" response="00000111110000011110" foes="00000111111000011110" cont="0"/>
        <request index="18" response="00000111110000011110" foes="00000111111000011110" cont="0"/>
        <request index="19" response="00000111100111011110" foes="00000111100111011110" cont="0"/>
    </junction>
    <junction id="w" type="dead_end" x="0.00" y="150.00" incLanes="t_w_0 t_w_1 t_w_2" intLanes="" shape="0.00,150.00 0.00,159.60 0.00,150.00"/>

    <junction id=":t_20_0" type="internal" x="149.11" y="158.64" incLanes=":t_4_0 s_t_0 s_t_1 s_t_2" intLanes=":t_6_0 :t_6_1 :t_6_2 :t_9_0 :t_10_0 :t_11_0 :t_11_1 :t_11_2 :t_16_0 :t_16_1 :t_16_2 :t_19_0"/>
    <junction id=":t_21_0" type="internal" x="150.89" y="141.36" incLanes=":t_14_0 n_t_0 n_t_1 n_t_2" intLanes=":t_0_0 :t_1_0 :t_1_1 :t_1_2 :t_6_0 :t_6_1 :t_6_2 :t_9_0 :t_16_0 :t_16_1 :t_16_2 :t_19_0"/>

    <connection from="e_t" to="t_n" fromLane="0" toLane="0" via=":t_5_0" dir="r" state="m"/>
    <connection from="e_t" to="t_w" fromLane="0" toLane="0" via=":t_6_0" dir="s" state="m"/>
    <connection from="e_t" to="t_w" fromLane="1" toLane="1" via=":t_6_1" dir="s" state="m"/>
    <connection from="e_t" to="t_w" fromLane="2" toLane="2" via=":t_6_2" dir="s" state="m"/>
    <connection from="e_t" to="t_s" fromLane="2" toLane="2" via=":t_9_0" dir="l" state="m"/>
    <connection from="n_t" to="t_w" fromLane="0" toLane="0" via=":t_0_0" dir="r" state="M"/>
    <connection from="n_t" to="t_s" fromLane="0" toLane="0" via=":t_1_0" dir="s" state="M"/>
    <connection from="n_t" to="t_s" fromLane="1" toLane="1" via=":t_1_1" dir="s" state="M"/>
    <connection from="n_t" to="t_s" fromLane="2" toLane="2" via=":t_1_2" dir="s" state="M"/>
    <connection from="n_t" to="t_e" fromLane="2" toLane="2" via=":t_4_0" dir="l" state="m"/>
    <connection from="s_t" to="t_e" fromLane="0" toLane="0" via=":t_10_0" dir="r" state="M"/>
    <connection from="s_t" to="t_n" fromLane="0" toLane="0" via=":t_11_0" dir="s" state="M"/>
    <connection from="s_t" to="t_n" fromLane="1" toLane="1" via=":t_11_1" dir="s" state="M"/>
    <connection from="s_t" to="t_n" fromLane="2" toLane="2" via=":t_11_2" dir="s" state="M"/>
    <connection from="s_t" to="t_w" fromLane="2" toLane="2" via=":t_14_0" dir="l" state="m"/>
    <connection from="w_t" to="t_s" fromLane="0" toLane="0" via=":t_15_0" dir="r" state="m"/>
    <connection from="w_t" to="t_e" fromLane="0" toLane="0" via=":t_16_0" dir="s" state="m"/>
    <connection from="w_t" to="t_e" fromLane="1" toLane="1" via=":t_16_1" dir="s" state="m"/>
    <connection from="w_t" to="t_e" fromLane="2" toLane="2" via=":t_16_2" dir="s" state="m"/>
    <connection from="w_t" to="t_n" fromLane="2" toLane="2" via=":t_19_0" dir="l" state="m"/>

    <connection from=":t_0" to="t_w" fromLane="0" toLane="0" dir="r" state="M"/>
    <connection from=":t_1" to="t_s" fromLane="0" toLane="0" dir="s" state="M"/>
    <connection from=":t_1" to="t_s" fromLane="1" toLane="1" dir="s" state="M"/>
    <connection from=":t_1" to="t_s" fromLane="2" toLane="2" dir="s" state="M"/>
    <connection from=":t_4" to="t_e" fromLane="0" toLane="2" via=":t_20_0" dir="l" state="m"/>
    <connection from=":t_20" to="t_e" fromLane="0" toLane="2" dir="l" state="M"/>
    <connection from=":t_5" to="t_n" fromLane="0" toLane="0" dir="r" state="M"/>
    <connection from=":t_6" to="t_w" fromLane="0" toLane="0" dir="s" state="M"/>
    <connection from=":t_6" to="t_w" fromLane="1" toLane="1" dir="s" state="M"/>
    <connection from=":t_6" to="t_w" fromLane="2" toLane="2" dir="s" state="M"/>
    <connection from=":t_9" to="t_s" fromLane="0" toLane="2" dir="l" state="M"/>
    <connection from=":t_10" to="t_e" fromLane="0" toLane="0" dir="r" state="M"/>
    <connection from=":t_11" to="t_n" fromLane="0" toLane="0" dir="s" state="M"/>
    <connection from=":t_11" to="t_n" fromLane="1" toLane="1" dir="s" state="M"/>
    <connection from=":t_11" to="t_n" fromLane="2" toLane="2" dir="s" state="M"/>
    <connection from=":t_14" to="t_w" fromLane="0" toLane="2" via=":t_21_0" dir="l" state="m"/>
    <connection from=":t_21" to="t_w" fromLane="0" toLane="2" dir="l" state="M"/>
    <connection from=":t_15" to="t_s" fromLane="0" toLane="0" dir="r" state="M"/>
    <connection from=":t_16" to="t_e" fromLane="0" toLane="0" dir="s" state="M"/>
    <connection from=":t_16" to="t_e" fromLane="1" toLane="1" dir="s" state="M"/>
    <connection from=":t_16" to="t_e" fromLane="2" toLane="2" dir="s" state="M"/>
    <connection from=":t_19" to="t_n" fromLane="0" toLane="2" dir="l" state="M"/>

</net>
