<configuration>
    <input>
        <net-file value="single-intersection-4.net.xml"/>
        <route-files value="test_conflict6.rou.xml"/>
    </input>
    <time>
        <begin value="0"/>
        <end value="100000"/>
    </time>
</configuration>
