<?xml version="1.0" encoding="UTF-8"?>

<!-- generated on 2024-06-09 10:30:40 by Eclipse SUMO netconvert Version 1.19.0
<configuration xmlns:xsi="http://www.w3.org/2001/XMLSchema-instance" xsi:noNamespaceSchemaLocation="http://sumo.dlr.de/xsd/netconvertConfiguration.xsd">

    <input>
        <node-files value="sumo_rl\nets\2way-single-intersection\single-intersection.nod.xml"/>
        <edge-files value="sumo_rl\nets\2way-single-intersection\single-intersection.edg.xml"/>
        <connection-files value="sumo_rl\nets\2way-single-intersection\single-intersection.con.xml"/>
    </input>

    <output>
        <output-file value="sumo_rl\nets\2way-single-intersection\single-intersection-2.net.xml"/>
    </output>

    <processing>
        <lefthand value="true"/>
    </processing>

    <junctions>
        <no-turnarounds value="true"/>
    </junctions>

</configuration>
-->

<net version="1.16" junctionCornerDetail="5" lefthand="true" limitTurnSpeed="5.50" xmlns:xsi="http://www.w3.org/2001/XMLSchema-instance" xsi:noNamespaceSchemaLocation="http://sumo.dlr.de/xsd/net_file.xsd">

    <location netOffset="150.00,150.00" convBoundary="0.00,-0.00,300.00,300.00" origBoundary="-150.00,-150.00,150.00,150.00" projParameter="!"/>

    <edge id=":t_0" function="internal">
        <lane id=":t_0_0" index="0" speed="7.35" length="11.81" width="9.75" shape="141.88,136.25 141.52,140.13 140.47,142.91 138.71,144.57 136.25,145.12"/>
    </edge>
    <edge id=":t_1" function="internal">
        <lane id=":t_1_0" index="0" speed="13.89" length="27.50" width="9.75" shape="145.12,136.25 145.12,163.75"/>
    </edge>
    <edge id=":t_2" function="internal">
        <lane id=":t_2_0" index="0" speed="10.66" length="6.24" width="9.75" shape="148.38,136.25 149.66,142.36"/>
    </edge>
    <edge id=":t_12" function="internal">
        <lane id=":t_12_0" index="0" speed="10.66" length="19.76" width="9.75" shape="149.66,142.36 149.70,142.56 153.18,148.58 158.10,153.10 163.75,154.88"/>
    </edge>
    <edge id=":t_3" function="internal">
        <lane id=":t_3_0" index="0" speed="7.35" length="11.81" width="9.75" shape="163.75,141.88 159.87,141.52 157.09,140.47 155.43,138.71 154.88,136.25"/>
    </edge>
    <edge id=":t_4" function="internal">
        <lane id=":t_4_0" index="0" speed="13.89" length="27.50" width="9.75" shape="163.75,145.12 136.25,145.12"/>
    </edge>
    <edge id=":t_5" function="internal">
        <lane id=":t_5_0" index="0" speed="10.66" length="6.24" width="9.75" shape="163.75,148.38 157.64,149.66"/>
    </edge>
    <edge id=":t_13" function="internal">
        <lane id=":t_13_0" index="0" speed="10.66" length="19.76" width="9.75" shape="157.64,149.66 157.44,149.70 151.42,153.18 146.90,158.10 145.12,163.75"/>
    </edge>
    <edge id=":t_6" function="internal">
        <lane id=":t_6_0" index="0" speed="7.35" length="11.81" width="9.75" shape="158.12,163.75 158.48,159.87 159.53,157.09 161.29,155.43 163.75,154.88"/>
    </edge>
    <edge id=":t_7" function="internal">
        <lane id=":t_7_0" index="0" speed="13.89" length="27.50" width="9.75" shape="154.88,163.75 154.88,136.25"/>
    </edge>
    <edge id=":t_8" function="internal">
        <lane id=":t_8_0" index="0" speed="10.66" length="6.24" width="9.75" shape="151.62,163.75 150.34,157.64"/>
    </edge>
    <edge id=":t_14" function="internal">
        <lane id=":t_14_0" index="0" speed="10.66" length="19.76" width="9.75" shape="150.34,157.64 150.30,157.44 146.82,151.42 141.90,146.90 136.25,145.12"/>
    </edge>
    <edge id=":t_9" function="internal">
        <lane id=":t_9_0" index="0" speed="7.35" length="11.81" width="9.75" shape="136.25,158.12 140.13,158.48 142.91,159.53 144.57,161.29 145.12,163.75"/>
    </edge>
    <edge id=":t_10" function="internal">
        <lane id=":t_10_0" index="0" speed="13.89" length="27.50" width="9.75" shape="136.25,154.88 163.75,154.88"/>
    </edge>
    <edge id=":t_11" function="internal">
        <lane id=":t_11_0" index="0" speed="10.66" length="6.24" width="9.75" shape="136.25,151.62 142.36,150.34"/>
    </edge>
    <edge id=":t_15" function="internal">
        <lane id=":t_15_0" index="0" speed="10.66" length="19.76" width="9.75" shape="142.36,150.34 142.56,150.30 148.58,146.82 153.10,141.90 154.88,136.25"/>
    </edge>

    <edge id="e_t" from="e" to="t" priority="-1">
        <lane id="e_t_0" index="0" speed="13.89" length="136.25" width="3.25" shape="300.00,141.88 163.75,141.88"/>
        <lane id="e_t_1" index="1" speed="13.89" length="136.25" width="3.25" shape="300.00,145.12 163.75,145.12"/>
        <lane id="e_t_2" index="2" speed="13.89" length="136.25" width="3.25" shape="300.00,148.38 163.75,148.38"/>
    </edge>
    <edge id="n_t" from="n" to="t" priority="-1">
        <lane id="n_t_0" index="0" speed="13.89" length="136.25" width="3.25" shape="158.12,300.00 158.12,163.75"/>
        <lane id="n_t_1" index="1" speed="13.89" length="136.25" width="3.25" shape="154.88,300.00 154.88,163.75"/>
        <lane id="n_t_2" index="2" speed="13.89" length="136.25" width="3.25" shape="151.62,300.00 151.62,163.75"/>
    </edge>
    <edge id="s_t" from="s" to="t" priority="-1">
        <lane id="s_t_0" index="0" speed="13.89" length="136.25" width="3.25" shape="141.88,-0.00 141.88,136.25"/>
        <lane id="s_t_1" index="1" speed="13.89" length="136.25" width="3.25" shape="145.12,-0.00 145.12,136.25"/>
        <lane id="s_t_2" index="2" speed="13.89" length="136.25" width="3.25" shape="148.38,-0.00 148.38,136.25"/>
    </edge>
    <edge id="t_e" from="t" to="e" priority="-1">
        <lane id="t_e_0" index="0" speed="13.89" length="136.25" width="9.75" shape="163.75,154.88 300.00,154.88"/>
    </edge>
    <edge id="t_n" from="t" to="n" priority="-1">
        <lane id="t_n_0" index="0" speed="13.89" length="136.25" width="9.75" shape="145.12,163.75 145.12,300.00"/>
    </edge>
    <edge id="t_s" from="t" to="s" priority="-1">
        <lane id="t_s_0" index="0" speed="13.89" length="136.25" width="9.75" shape="154.88,136.25 154.88,-0.00"/>
    </edge>
    <edge id="t_w" from="t" to="w" priority="-1">
        <lane id="t_w_0" index="0" speed="13.89" length="136.25" width="9.75" shape="136.25,145.12 0.00,145.12"/>
    </edge>
    <edge id="w_t" from="w" to="t" priority="-1">
        <lane id="w_t_0" index="0" speed="13.89" length="136.25" width="3.25" shape="0.00,158.12 136.25,158.12"/>
        <lane id="w_t_1" index="1" speed="13.89" length="136.25" width="3.25" shape="0.00,154.88 136.25,154.88"/>
        <lane id="w_t_2" index="2" speed="13.89" length="136.25" width="3.25" shape="0.00,151.62 136.25,151.62"/>
    </edge>

    <tlLogic id="t" type="static" programID="0" offset="0">
        <phase duration="33" state="GGGrrrGGGrrr"/>
        <phase duration='3' state='yyyyyyyyyyyy' />
        <phase duration="33" state="rrrGGGrrrGGG"/>
        <phase duration='3' state='yyyyyyyyyyyy' />
        
    </tlLogic>

    <junction id="e" type="dead_end" x="300.00" y="150.00" incLanes="t_e_0" intLanes="" shape="300.00,150.00 300.00,159.75 300.00,150.00"/>
    <junction id="n" type="dead_end" x="150.00" y="300.00" incLanes="t_n_0" intLanes="" shape="150.00,300.00 140.25,300.00 150.00,300.00"/>
    <junction id="s" type="dead_end" x="150.00" y="-0.00" incLanes="t_s_0" intLanes="" shape="150.00,-0.00 159.75,-0.00 150.00,-0.00"/>
    <junction id="t" type="traffic_light" x="150.00" y="150.00" incLanes="s_t_0 s_t_1 s_t_2 e_t_0 e_t_1 e_t_2 n_t_0 n_t_1 n_t_2 w_t_0 w_t_1 w_t_2" intLanes=":t_0_0 :t_1_0 :t_12_0 :t_3_0 :t_4_0 :t_13_0 :t_6_0 :t_7_0 :t_14_0 :t_9_0 :t_10_0 :t_15_0" shape="140.25,136.25 159.75,136.25 160.19,138.47 160.75,139.25 161.53,139.81 162.53,140.14 163.75,140.25 163.75,159.75 161.53,160.19 160.75,160.75 160.19,161.53 159.86,162.53 159.75,163.75 140.25,163.75 139.81,161.53 139.25,160.75 138.47,160.19 137.47,159.86 136.25,159.75 136.25,140.25 138.47,139.81 139.25,139.25 139.81,138.47 140.14,137.47">
        <request index="0"  response="000000000000" foes="000100010000" cont="0"/>
        <request index="1"  response="100000100000" foes="111100110000" cont="0"/>
        <request index="2"  response="100011100000" foes="110011110000" cont="1"/>
        <request index="3"  response="000010000000" foes="100010000000" cont="0"/>
        <request index="4"  response="000110000111" foes="100110000111" cont="0"/>
        <request index="5"  response="011110000110" foes="011110000110" cont="1"/>
        <request index="6"  response="000000000000" foes="010000000100" cont="0"/>
        <request index="7"  response="100000100000" foes="110000111100" cont="0"/>
        <request index="8"  response="100000100011" foes="110000110011" cont="1"/>
        <request index="9"  response="000000000010" foes="000000100010" cont="0"/>
        <request index="10" response="000111000110" foes="000111100110" cont="0"/>
        <request index="11" response="000110011110" foes="000110011110" cont="1"/>
    </junction>
    <junction id="w" type="dead_end" x="0.00" y="150.00" incLanes="t_w_0" intLanes="" shape="0.00,150.00 0.00,140.25 0.00,150.00"/>

    <junction id=":t_12_0" type="internal" x="149.66" y="142.36" incLanes=":t_2_0 n_t_0 n_t_1" intLanes=":t_4_0 :t_5_0 :t_6_0 :t_7_0 :t_10_0 :t_11_0"/>
    <junction id=":t_13_0" type="internal" x="157.64" y="149.66" incLanes=":t_5_0 w_t_0 w_t_1" intLanes=":t_1_0 :t_2_0 :t_7_0 :t_8_0 :t_9_0 :t_10_0"/>
    <junction id=":t_14_0" type="internal" x="150.34" y="157.64" incLanes=":t_8_0 s_t_0 s_t_1" intLanes=":t_0_0 :t_1_0 :t_4_0 :t_5_0 :t_10_0 :t_11_0"/>
    <junction id=":t_15_0" type="internal" x="142.36" y="150.34" incLanes=":t_11_0 e_t_0 e_t_1" intLanes=":t_1_0 :t_2_0 :t_3_0 :t_4_0 :t_7_0 :t_8_0"/>

    <connection from="e_t" to="t_s" fromLane="0" toLane="0" via=":t_3_0" tl="t" linkIndex="3" dir="l" state="o"/>
    <connection from="e_t" to="t_w" fromLane="1" toLane="0" via=":t_4_0" tl="t" linkIndex="4" dir="s" state="o"/>
    <connection from="e_t" to="t_n" fromLane="2" toLane="0" via=":t_5_0" tl="t" linkIndex="5" dir="r" state="o"/>
    <connection from="n_t" to="t_e" fromLane="0" toLane="0" via=":t_6_0" tl="t" linkIndex="6" dir="l" state="O"/>
    <connection from="n_t" to="t_s" fromLane="1" toLane="0" via=":t_7_0" tl="t" linkIndex="7" dir="s" state="O"/>
    <connection from="n_t" to="t_w" fromLane="2" toLane="0" via=":t_8_0" tl="t" linkIndex="8" dir="r" state="o"/>
    <connection from="s_t" to="t_w" fromLane="0" toLane="0" via=":t_0_0" tl="t" linkIndex="0" dir="l" state="O"/>
    <connection from="s_t" to="t_n" fromLane="1" toLane="0" via=":t_1_0" tl="t" linkIndex="1" dir="s" state="O"/>
    <connection from="s_t" to="t_e" fromLane="2" toLane="0" via=":t_2_0" tl="t" linkIndex="2" dir="r" state="o"/>
    <connection from="w_t" to="t_n" fromLane="0" toLane="0" via=":t_9_0" tl="t" linkIndex="9" dir="l" state="o"/>
    <connection from="w_t" to="t_e" fromLane="1" toLane="0" via=":t_10_0" tl="t" linkIndex="10" dir="s" state="o"/>
    <connection from="w_t" to="t_s" fromLane="2" toLane="0" via=":t_11_0" tl="t" linkIndex="11" dir="r" state="o"/>

    <connection from=":t_0" to="t_w" fromLane="0" toLane="0" dir="l" state="M"/>
    <connection from=":t_1" to="t_n" fromLane="0" toLane="0" dir="s" state="M"/>
    <connection from=":t_2" to="t_e" fromLane="0" toLane="0" via=":t_12_0" dir="r" state="m"/>
    <connection from=":t_12" to="t_e" fromLane="0" toLane="0" dir="r" state="M"/>
    <connection from=":t_3" to="t_s" fromLane="0" toLane="0" dir="l" state="M"/>
    <connection from=":t_4" to="t_w" fromLane="0" toLane="0" dir="s" state="M"/>
    <connection from=":t_5" to="t_n" fromLane="0" toLane="0" via=":t_13_0" dir="r" state="m"/>
    <connection from=":t_13" to="t_n" fromLane="0" toLane="0" dir="r" state="M"/>
    <connection from=":t_6" to="t_e" fromLane="0" toLane="0" dir="l" state="M"/>
    <connection from=":t_7" to="t_s" fromLane="0" toLane="0" dir="s" state="M"/>
    <connection from=":t_8" to="t_w" fromLane="0" toLane="0" via=":t_14_0" dir="r" state="m"/>
    <connection from=":t_14" to="t_w" fromLane="0" toLane="0" dir="r" state="M"/>
    <connection from=":t_9" to="t_n" fromLane="0" toLane="0" dir="l" state="M"/>
    <connection from=":t_10" to="t_e" fromLane="0" toLane="0" dir="s" state="M"/>
    <connection from=":t_11" to="t_s" fromLane="0" toLane="0" via=":t_15_0" dir="r" state="m"/>
    <connection from=":t_15" to="t_s" fromLane="0" toLane="0" dir="r" state="M"/>

</net>
