<configuration>
    <input>
        <net-file value="single-intersection-2.net.xml"/>
        <route-files value="test_conflict6.rou.xml"/>
        <additional-files value="conflict6.add.xml"/>
    </input>
    <time>
        <begin value="0"/>
        <end value="100000"/>
    </time>
</configuration>
