<routes>
  <vType accel="2.6" decel="4.5" id="CarA" length="5.0" minGap="2.5" maxSpeed="55.55" sigma="0.8" />
  <route id="route04" edges="s_t t_n"/>
  <route id="route08" edges="w_t t_s"/>
  <flow id="flow04" begin="0" end="100000" period="exp(0.1)" route="route04" type="CarA" color="1,1,0"/>
  <flow id="flow08" begin="0" end="100000" period="exp(0.1)" route="route08" type="CarA" color="1,1,0" />
</routes>